M_CATDraftingInterfaces='mkSharedLibrary "C:\CATIA\DassaultSystemes\B19\.\DraftingInterfaces\CATDraftingInterfaces.m" CATDraftingInterfaces CATDraftingInterfaces - -'
WS_Concat='"C:\CAA\Code\DimensionWeldWithMouse\." "C:\CATIA\DassaultSystemes\B19\."'
RTViewDataListPath='C:\CAA\Code\DimensionWeldWithMouse\.\CAADraftingInterfaces\various\win_b64\CAADrwAddin.m\module.data'
MKMK_DEVSTAGE=''
BUILT_OBJECT_TYPE='SHARED LIBRARY'
MKMK_BSCMAKE=''
WSEKEY='M_CAADrwAddin'
MOD_Included='M_CAADrwAddin'
MODNAME='CAADrwAddin'
CONTNAME='CAADrwAddin'
FWmkHLpath='C:\CAA\Code\DimensionWeldWithMouse\.\CAADraftingInterfaces\IdentityCard\Objects\win_b64\.mkHLpath.mk'
M_JS0GROUP='mkSharedLibrary "C:\CATIA\DassaultSystemes\B19\.\System\JS0GROUP.m" JS0GROUP JS0GROUP - -'
WIZARD_LINK_MODULES=''
MKMK_WARNING=''
FWDNAME='CAADraftingInterfaces'
MKMK_ZIPJAVASOURCE=''
GPrivate='C:\CAA\Code\DimensionWeldWithMouse\.\CAADraftingInterfaces\PrivateGenerated\win_b64'
M_CAADrwAddin='mkSharedLibrary "C:\CAA\Code\DimensionWeldWithMouse\.\CAADraftingInterfaces\CAADrwAddin.m" CAADrwAddin CAADrwAddin - -'
IPublic='C:\CAA\Code\DimensionWeldWithMouse\.\CAADraftingInterfaces\PublicInterfaces'
IPrivate='C:\CAA\Code\DimensionWeldWithMouse\.\CAADraftingInterfaces\PrivateInterfaces'
GPublic='C:\CAA\Code\DimensionWeldWithMouse\.\CAADraftingInterfaces\PublicGenerated\win_b64'
MKMK_DEBUGEDITANDCONTINUE=''
GProtected='C:\CAA\Code\DimensionWeldWithMouse\.\CAADraftingInterfaces\ProtectedGenerated\win_b64'
WSROOT='C:\CAA\Code\DimensionWeldWithMouse\.'
IProtected='C:\CAA\Code\DimensionWeldWithMouse\.\CAADraftingInterfaces\ProtectedInterfaces'
MKMK_DATA_VERSION='1.0.0'
STEPS_TO_CLEAN=''
NAME='C:\CAA\Code\DimensionWeldWithMouse\.\CAADraftingInterfaces\CAADrwAddin.m\Objects\win_b64\.mkdata.mk'
STEPS_TO_BUILD='grammar1st grammar2nd sourcecheck caacheck typelibgrammar compilation sourceruler globalresource cpponly link1st link2nd'
FWNAME='CAADraftingInterfaces'
M_CATApplicationFrame='mkSharedLibrary "C:\CATIA\DassaultSystemes\B19\.\ApplicationFrame\CATApplicationFrame.m" CATApplicationFrame CATApplicationFrame - -'
MODPATH='C:\CAA\Code\DimensionWeldWithMouse\.\CAADraftingInterfaces\CAADrwAddin.m'
FW_AllPreq='AdvancedMathematics,20DD2151;AdvancedTopologicalOpe,20DD2151;ApplicationFrame,21ED2151;AutomationInterfaces,20DD2151;BasicTopologicalOpe,20DD2151;BatchInfrastructure,20DD2151;CAT3DXmlInterfaces,20DD2151;CATAssemblyInterfaces,20DD2151;CATCDS,20DD2151;CATCDSUtilities,20DD2151;CATCloudBasicResources,20DD2151;CATDataCompatibilityInfra,20DD2151;CATElfiniOpenSoftware,20DD2151;CATFuzzyOperators,20DD2151;CATGraphicProperties,20DD2151;CATIAApplicationFrame,20DD2151;CATIADataBasics,20DD2151;CATIADataMacFortran,20DD2151;CATImmWtpInterfaces,20DD2151;CATJavaBridge,20DD2151;CATPDMBaseInterfaces,20DD2151;CATPLMDictionary,20DD2151;CATShmInterfaces,20DD2151;CATSmarTeamIntegInterfaces,20DD2151;CATSubdivisionApproximation,20DD2151;CATSubdivisionMeshOperators,20DD2151;CATSubdivisionObjects,20DD2151;CATTPSInterfaces,21EE2151;CATTTRSInterfaces,20DD2151;CATTechResultInterfaces,20DD2151;CATTechnologicalPackageUIItf,20DD2151;CATV4System,20DD2151;CATVirtualVaultSystem,20DD2151;CATWBx,20DD2151;CATXDocLinkInterfaces,20DD2151;CGMV5Interoperability,20DD2151;Communications,20DD2151;ComponentsCatalogsInterfaces,20DD2151;ConstraintModelerInterfaces,20DD2151;ConstraintSolver,20DD2151;CurveBasedGeoOperators,20DD2151;CurveBasedInfrastructure,20DD2151;CurveBasedMathematics,20DD2151;CurveBasedTopoOperators,20DD2151;DCM3D,20DD2151;Dialog,21ED2151;DialogEngine,21ED2151;DraftingInterfaces,21ED2151;FileMenu,20DD2151;FreeFormOperators,20DD2151;GSMInterfaces,20DD2151;GenericNaming,20DC2151;GeometricObjects,21ED2151;GeometricObjectsCGM,20DD2151;GeometricOperators,20DD2151;GeometryVisualization,20DD2151;Graph,20DD2151;HLRBase,20DD2151;InfInterfaces,21ED2151;InteractiveInterfaces,20DD2151;KnowledgeInterfaces,20DD2151;KnowledgeModeler,20DD2151;LiteralFeatures,20DD2151;Mainwin,20DD2151;Mathematics,21ED2151;MeasureGeometryInterfaces,20DD2151;MecModInterfaces,21ED2151;MechanicalCommands,20DD2151;MechanicalModeler,21EE2151;Multimedia,20DD2151;NewTopologicalObjects,21EC2151;ObjectModelerBase,21EC2151;ObjectModelerBaseUI,20DD2151;ObjectModelerCATIA,20DD2151;ObjectModelerCollection,20CC2151;ObjectModelerInterfaces,20DD2151;ObjectModelerNavigator,20DD2151;ObjectModelerSystem,20DD2151;ObjectSpecsModeler,21ED2151;PartInterfaces,20DD2151;PolygonalTools,20DD2151;PolyhedralInterfaces,20DD2151;PolyhedralMathematics,20DD2151;PolyhedralObjects,20DD2151;PolyhedralOperators,20DD2151;PolyhedralVisuOperators,20DD2151;PolyhedralVisualization,20DD2151;Print,20DD2151;PrintBase,20DD2151;ProductStructure,21ED2151;ProductStructureInterfaces,20DD2151;SketcherInterfaces,21ED2151;SpecialAPI,20DD2151;SurfacicGeoOperators,20DD2151;SurfacicInfrastructure,20DD2151;SurfacicMathematics,20DD2151;SurfacicTopoOperators,20DD2151;System,21ED2151;Tessellation,20DD2151;TopologicalOperators,20DD2151;VBA,20DD2151;Visualization,21ED2151;VisualizationBase,21ED2151;XMLParser,20DD2151;XlatorCGM,20DD2151;'
FW_INCPATH='"C:\CAA\Code\DimensionWeldWithMouse\.\CAADraftingInterfaces\PrivateInterfaces" "C:\CAA\Code\DimensionWeldWithMouse\.\CAADraftingInterfaces\PrivateGenerated\win_b64" "C:\CAA\Code\DimensionWeldWithMouse\.\CAADraftingInterfaces\ProtectedInterfaces" "C:\CAA\Code\DimensionWeldWithMouse\.\CAADraftingInterfaces\ProtectedGenerated\win_b64" "C:\CAA\Code\DimensionWeldWithMouse\.\CAADraftingInterfaces\PublicInterfaces" "C:\CAA\Code\DimensionWeldWithMouse\.\CAADraftingInterfaces\PublicGenerated\win_b64"'
WSENAME_msg='CAADraftingInterfaces\CAADrwAddin.m'
MOD_Container='CAADrwAddin.m'
MOD_LinkWith='M_JS0GROUP M_CATApplicationFrame M_CATDraftingInterfaces'
REAL_LINK_WITH='JS0GROUP CATApplicationFrame CATDraftingInterfaces'
MKMK_DEBUG='YES'
WSPATH='C:\CAA\Code\DimensionWeldWithMouse\.'
GLocal='C:\CAA\Code\DimensionWeldWithMouse\.\CAADraftingInterfaces\CAADrwAddin.m\LocalGenerated\win_b64'
ILocal='C:\CAA\Code\DimensionWeldWithMouse\.\CAADraftingInterfaces\CAADrwAddin.m\LocalInterfaces'
FWCOMPANYNAME='""'
MOD_INCPATH='"C:\CAA\Code\DimensionWeldWithMouse\.\CAADraftingInterfaces\CAADrwAddin.m\src" "C:\CAA\Code\DimensionWeldWithMouse\.\CAADraftingInterfaces\CAADrwAddin.m\LocalInterfaces" "C:\CAA\Code\DimensionWeldWithMouse\.\CAADraftingInterfaces\CAADrwAddin.m\LocalGenerated\win_b64"'
FWPATH='C:\CAA\Code\DimensionWeldWithMouse\.\CAADraftingInterfaces'
F_CAADraftingInterfaces='mkFramework "C:\CAA\Code\DimensionWeldWithMouse\.\CAADraftingInterfaces" CAADraftingInterfaces CAADraftingInterfaces - -'
FWIDENT='caadraftinginterfaces'
LINK_WITH='JS0CORBA CATApplicationFrame DraftingItfCPP'
